
     RDKit          3D

 48 50  0  0  0  0  0  0  0  0999 V2000
    4.7698    0.0376   -1.8810 C   0  0  0  0  0  0  0  0  0  0  0  0
    4.0236    0.0628   -0.5739 C   0  0  0  0  0  0  0  0  0  0  0  0
    4.3032    1.2685    0.2803 C   0  0  0  0  0  0  0  0  0  0  0  0
    3.1616   -0.9225   -0.2511 C   0  0  0  0  0  0  0  0  0  0  0  0
    2.3676   -1.0701    1.0187 C   0  0  0  0  0  0  0  0  0  0  0  0
    1.0080   -0.5242    0.9138 N   0  0  0  0  0  0  0  0  0  0  0  0
    0.4104   -0.3844    2.2412 C   0  0  0  0  0  0  0  0  0  0  0  0
   -1.0007    0.2146    2.1961 C   0  0  0  0  0  0  0  0  0  0  0  0
   -1.9100   -0.3996    1.0875 C   0  0  1  0  0  0  0  0  0  0  0  0
   -3.2696   -0.7839    1.7148 C   0  0  0  0  0  0  0  0  0  0  0  0
   -2.0603    0.6569   -0.0273 C   0  0  0  0  0  0  0  0  0  0  0  0
   -3.0461    1.6614    0.0450 C   0  0  0  0  0  0  0  0  0  0  0  0
   -3.1535    2.6269   -0.9549 C   0  0  0  0  0  0  0  0  0  0  0  0
   -4.1062    3.6021   -0.9009 O   0  0  0  0  0  0  0  0  0  0  0  0
   -2.2900    2.6299   -2.0373 C   0  0  0  0  0  0  0  0  0  0  0  0
   -1.2968    1.6587   -2.1199 C   0  0  0  0  0  0  0  0  0  0  0  0
   -1.1646    0.6779   -1.1206 C   0  0  0  0  0  0  0  0  0  0  0  0
   -0.0742   -0.3586   -1.2888 C   0  0  0  0  0  0  0  0  0  0  0  0
    0.1494   -1.2562   -0.0527 C   0  0  2  0  0  0  0  0  0  0  0  0
   -1.2176   -1.6796    0.5354 C   0  0  2  0  0  0  0  0  0  0  0  0
   -2.0604   -2.4899   -0.4643 C   0  0  0  0  0  0  0  0  0  0  0  0
    5.8496    0.0459   -1.7001 H   0  0  0  0  0  0  0  0  0  0  0  0
    4.5391   -0.8535   -2.4743 H   0  0  0  0  0  0  0  0  0  0  0  0
    4.5105    0.9143   -2.4835 H   0  0  0  0  0  0  0  0  0  0  0  0
    5.3403    1.2488    0.6304 H   0  0  0  0  0  0  0  0  0  0  0  0
    4.1529    2.1844   -0.3014 H   0  0  0  0  0  0  0  0  0  0  0  0
    3.6530    1.3397    1.1556 H   0  0  0  0  0  0  0  0  0  0  0  0
    3.0189   -1.7352   -0.9608 H   0  0  0  0  0  0  0  0  0  0  0  0
    2.9105   -0.5781    1.8347 H   0  0  0  0  0  0  0  0  0  0  0  0
    2.3371   -2.1324    1.2961 H   0  0  0  0  0  0  0  0  0  0  0  0
    1.0299    0.2759    2.8615 H   0  0  0  0  0  0  0  0  0  0  0  0
    0.3829   -1.3524    2.7591 H   0  0  0  0  0  0  0  0  0  0  0  0
   -0.9190    1.3038    2.0808 H   0  0  0  0  0  0  0  0  0  0  0  0
   -1.4473    0.0584    3.1870 H   0  0  0  0  0  0  0  0  0  0  0  0
   -3.1595   -1.6402    2.3905 H   0  0  0  0  0  0  0  0  0  0  0  0
   -3.6926    0.0324    2.3110 H   0  0  0  0  0  0  0  0  0  0  0  0
   -4.0104   -1.0490    0.9522 H   0  0  0  0  0  0  0  0  0  0  0  0
   -3.7258    1.7009    0.8890 H   0  0  0  0  0  0  0  0  0  0  0  0
   -4.6223    3.4828   -0.0875 H   0  0  0  0  0  0  0  0  0  0  0  0
   -2.3833    3.3874   -2.8093 H   0  0  0  0  0  0  0  0  0  0  0  0
   -0.6157    1.6691   -2.9679 H   0  0  0  0  0  0  0  0  0  0  0  0
   -0.3491   -0.9948   -2.1406 H   0  0  0  0  0  0  0  0  0  0  0  0
    0.8596    0.1431   -1.5714 H   0  0  0  0  0  0  0  0  0  0  0  0
    0.6609   -2.1697   -0.3840 H   0  0  0  0  0  0  0  0  0  0  0  0
   -1.0323   -2.3722    1.3695 H   0  0  0  0  0  0  0  0  0  0  0  0
   -2.4532   -1.8826   -1.2843 H   0  0  0  0  0  0  0  0  0  0  0  0
   -2.9143   -2.9564    0.0379 H   0  0  0  0  0  0  0  0  0  0  0  0
   -1.4641   -3.2992   -0.8996 H   0  0  0  0  0  0  0  0  0  0  0  0
  1  2  1  0
  2  3  1  0
  2  4  2  3
  4  5  1  0
  5  6  1  0
  6  7  1  0
  7  8  1  0
  8  9  1  0
  9 10  1  1
  9 11  1  0
 11 12  2  0
 12 13  1  0
 13 14  1  0
 13 15  2  0
 15 16  1  0
 16 17  2  0
 17 18  1  0
 18 19  1  0
 19 20  1  0
 20 21  1  0
 19  6  1  0
 20  9  1  0
 17 11  1  0
  1 22  1  0
  1 23  1  0
  1 24  1  0
  3 25  1  0
  3 26  1  0
  3 27  1  0
  4 28  1  0
  5 29  1  0
  5 30  1  0
  7 31  1  0
  7 32  1  0
  8 33  1  0
  8 34  1  0
 10 35  1  0
 10 36  1  0
 10 37  1  0
 12 38  1  0
 14 39  1  0
 15 40  1  0
 16 41  1  0
 18 42  1  0
 18 43  1  0
 19 44  1  6
 20 45  1  1
 21 46  1  0
 21 47  1  0
 21 48  1  0
M  END
$$$$
